This is a test file. 
New line. 


Three lines later. 